/*---------------------------------------------------------------------------*\
| =========                 |                                                 |
| \\      /  F ield         | OpenFOAM: The Open Source CFD Toolbox           |
|  \\    /   O peration     | Version:  v2012                                 |
|   \\  /    A nd           | Website:  www.openfoam.com                      |
|    \\/     M anipulation  |                                                 |
\*---------------------------------------------------------------------------*/
Build  : _7bdb509494-20201222 OPENFOAM=2012
Arch   : "LSB;label=32;scalar=64"
Exec   : checkMesh -allTopology -allGeometry -constant
Date   : Aug 26 2024
Time   : 10:16:46
Host   : DESKTOP-09FNL0G
PID    : 4704
I/O    : uncollated
Case   : /home/teresa/OpenFOAM/teresa-v2012/run/test
nProcs : 1
trapFpe: Floating point exception trapping enabled (FOAM_SIGFPE).
fileModificationChecking : Monitoring run-time modified files using timeStampMaster (fileModificationSkew 5, maxFileModificationPolls 20)
allowSystemOperations : Allowing user-supplied system call operations

// * * * * * * * * * * * * * * * * * * * * * * * * * * * * * * * * * * * * * //
Create time

Create mesh for time = constant

Enabling all (cell, face, edge, point) topology checks.

Enabling all geometry checks.

Time = constant

Mesh stats
    points:           184877
    faces:            534912
    internal faces:   515712
    cells:            175104
    faces per cell:   6
    boundary patches: 10
    point zones:      0
    face zones:       0
    cell zones:       0

Overall number of cells of each type:
    hexahedra:     175104
    prisms:        0
    wedges:        0
    pyramids:      0
    tet wedges:    0
    tetrahedra:    0
    polyhedra:     0

Checking topology...
    Boundary definition OK.
    Cell to face addressing OK.
    Point usage OK.
    Upper triangular ordering OK.
    Face vertices OK.
    Topological cell zip-up check OK.
    Face-face connectivity OK.
    Number of regions: 1 (OK).

Checking patch topology for multiply connected surfaces...
    Patch               Faces    Points   Surface topology                   Bounding box
    bottomWall          2304     2401     ok (non-closed singly connected)   (0 0 0) (12.5664 0 4.18879)
    topWall             2304     2401     ok (non-closed singly connected)   (0 2 0) (12.5664 2 4.18879)
    sides1_half0        1824     1911     ok (non-closed singly connected)   (0 0 0) (12.5664 1 0)
    sides1_half1        1824     1911     ok (non-closed singly connected)   (0 0 4.18879) (12.5664 1 4.18879)
    sides2_half0        1824     1911     ok (non-closed singly connected)   (0 1 0) (12.5664 2 0)
    sides2_half1        1824     1911     ok (non-closed singly connected)   (0 1 4.18879) (12.5664 2 4.18879)
    inout1_half0        1824     1911     ok (non-closed singly connected)   (12.5664 0 0) (12.5664 1 4.18879)
    inout1_half1        1824     1911     ok (non-closed singly connected)   (0 0 0) (0 1 4.18879)
    inout2_half0        1824     1911     ok (non-closed singly connected)   (12.5664 1 0) (12.5664 2 4.18879)
    inout2_half1        1824     1911     ok (non-closed singly connected)   (0 1 0) (0 2 4.18879)

Checking faceZone topology for multiply connected surfaces...
    No faceZones found.

Checking basic cellZone addressing...
    No cellZones found.

Checking geometry...
    Overall domain bounding box (0 0 0) (12.5664 2 4.18879)
    Mesh has 3 geometric (non-empty/wedge) directions (1 1 1)
    Mesh has 3 solution (non-empty) directions (1 1 1)
    Boundary openness (6.78114e-17 -1.51164e-15 -3.4684e-16) OK.
    Max cell openness = 2.21264e-16 OK.
    Max aspect ratio = 52.0981 OK.
    Minimum face area = 0.000438527. Maximum face area = 0.022849.  Face area magnitudes OK.
    Min volume = 0.000114802. Max volume = 0.00171779.  Total volume = 105.276.  Cell volumes OK.
    Mesh non-orthogonality Max: 0 average: 0
    Non-orthogonality check OK.
    Face pyramids OK.
    Max skewness = 5.42788e-14 OK.
    Coupled point location match (average 8.88178e-16) OK.
    Face tets OK.
    Min/max edge length = 0.00502552 0.26182 OK.
    All angles in faces OK.
    Face flatness (1 = flat, 0 = butterfly) : min = 1  average = 1
    All face flatness OK.
    Cell determinant (wellposedness) : minimum: 0.000737896 average: 0.113862
 ***Cells with small determinant (< 0.001) found, number of cells: 9216
  <<Writing 9216 under-determined cells to set underdeterminedCells
    Concave cell check OK.
    Face interpolation weight : minimum: 0.481283 average: 0.494039
    Face interpolation weight check OK.
    Face volume ratio : minimum: 0.927835 average: 0.976994
    Face volume ratio check OK.

Failed 1 mesh checks.

End

