/*---------------------------------------------------------------------------*\
| =========                 |                                                 |
| \\      /  F ield         | OpenFOAM: The Open Source CFD Toolbox           |
|  \\    /   O peration     | Version:  v2012                                 |
|   \\  /    A nd           | Website:  www.openfoam.com                      |
|    \\/     M anipulation  |                                                 |
\*---------------------------------------------------------------------------*/
Build  : _7bdb509494-20201222 OPENFOAM=2012
Arch   : "LSB;label=32;scalar=64"
Exec   : renumberMesh -overwrite -constant
Date   : Aug 26 2024
Time   : 10:16:44
Host   : DESKTOP-09FNL0G
PID    : 4703
I/O    : uncollated
Case   : /home/teresa/OpenFOAM/teresa-v2012/run/test
nProcs : 1
trapFpe: Floating point exception trapping enabled (FOAM_SIGFPE).
fileModificationChecking : Monitoring run-time modified files using timeStampMaster (fileModificationSkew 5, maxFileModificationPolls 20)
allowSystemOperations : Allowing user-supplied system call operations

// * * * * * * * * * * * * * * * * * * * * * * * * * * * * * * * * * * * * * //
Create time

Create mesh for time = constant

Mesh size: 175104
Before renumbering :
    band           : 85776
    profile        : 5.06419e+08

Using default renumberMethod.

Selecting renumberMethod CuthillMcKee


After renumbering :
    band           : 2352
    profile        : 3.46041e+08

Writing mesh to "constant"
End

